Circuit: * H:\ECE2001\Project\bias-t.asc


Date: Fri Apr 08 19:48:42 2016
Total elapsed time: 0.015 seconds.

tnom = 27
temp = 27
method = trap
totiter = 0
traniter = 0
tranpoints = 0
accept = 0
rejected = 0
matrix size = 6
fillins = 1
solver = Normal

