Circuit: * H:\ECE2001\Project\photodiode_speaker_fiesta.asc

WARNING: Less than two connections to node NC_01.  This node is used by V1.
WARNING: Less than two connections to node N007.  This node is used by R4.
Direct Newton iteration for .op point succeeded.

Date: Wed Apr 20 22:54:08 2016
Total elapsed time: 0.103 seconds.

tnom = 27
temp = 27
method = modified trap
totiter = 2697
traniter = 2694
tranpoints = 1348
accept = 1170
rejected = 178
matrix size = 15
fillins = 2
solver = Normal
Matrix Compiler1: 578 bytes object code size  0.9/0.8/[0.8]
Matrix Compiler2: 1.01 KB object code size  0.8/0.8/[0.8]


